lehigh_full_test.dss
clear
set defaultbasefrequency=60
new object=circuit.lehigh basekv=115 pu=1.0001 phases=3 bus1=sourcebus angle=30 mvasc3=20000 mvasc1=21000
edit object=vsource.source basekv=115 bus1=sourcebus.1.2.3 pu=1.00 r1=0 x1=0.0001 r0=0 x0=0.0001
new object=vsource.secondsource basekv=4.16 bus1=680.1.2.3 pu=1.00 r1=0 x1=0.0001 r0=0 x0=0.0001
new object=transformer.sub phases=3 windings=2 xhl=0.008 buses=[sourcebus.1.2.3,650.1.2.3] conns=[delta,wye] kvs=[115,4.16] kvas=[5000,5000] %rs=[0.0005,0.0005]
new object=transformer.reg1 phases=1 bank=reg1 xhl=0.01 kvas=[1666,1666] buses=[650.1,rg60.1] kvs=[2.4,2.4] %loadloss=0.01
new object=regcontrol.reg1 transformer=reg1 winding=2 vreg=121 band=2 ptratio=20 ctprim=700 r=3 x=9
new object=transformer.reg2 phases=1 bank=reg1 xhl=0.01 kvas=[1666,1666] buses=[650.2,rg60.2] kvs=[2.4,2.4] %loadloss=0.01
new object=regcontrol.reg2 transformer=reg2 winding=2 vreg=121 band=2 ptratio=20 ctprim=700 r=3 x=9
new object=transformer.reg3 phases=1 bank=reg1 xhl=0.01 kvas=[1666,1666] buses=[650.3,rg60.3] kvs=[2.4,2.4] %loadloss=0.01
new object=regcontrol.reg3 transformer=reg3 winding=2 vreg=121 band=2 ptratio=20 ctprim=700 r=3 x=9
new object=transformer.xfm1 phases=3 windings=2 xhl=2 buses=[633.1.2.3,634.1.2.3] conns=[wye,wye] kvs=[4.16,0.480] kvas=[500,500] %rs=[0.55,0.55] xht=1 xlt=1
new object=linecode.mtx601 nphases=3 basefreq=60 rmatrix=[0.3465|0.1560,0.3375|0.1580,0.1535,0.3414] xmatrix=[1.0179|0.5017,1.0478|0.4236,0.3849,1.0348] units=mi
new object=linecode.mtx602 nphases=3 basefreq=60 rmatrix=[0.7526|0.1580,0.7475|0.1560,0.1535,0.7436] xmatrix=[1.1814|0.4236,1.1983|0.5017,0.3849,1.2112] units=mi
new object=linecode.mtx603 nphases=2 basefreq=60 rmatrix=[1.3238|0.2066,1.3294] xmatrix=[1.3569|0.4591,1.3471] units=mi
new object=linecode.mtx604 nphases=2 basefreq=60 rmatrix=[1.3238|0.2066,1.3294] xmatrix=[1.3569|0.4591,1.3471] units=mi
new object=linecode.mtx605 nphases=1 basefreq=60 rmatrix=[1.3292] xmatrix=[1.3475] units=mi
new object=linecode.mtx606 nphases=3 units=mi rmatrix=[0.791721|0.318476,0.781649|0.28345,0.318476,0.791721] xmatrix=[0.438352|0.0276838,0.396697|-0.0184204,0.0276838,0.438352] cmatrix=[383.948|0,383.948|0,0,383.948]
new object=linecode.mtx607 nphases=1 basefreq=60 rmatrix=[1.3425] xmatrix=[0.5124] cmatrix=[236] units=mi
new object=loadshape.solar_634_shape npts=8760 interval=1 useactual=no mult=[0.0,0.0,0.0,0.0,0.0,0.0,0.0,0.0,0.011777250807696591,0.03571172791367594,0.0504094186176054,0.15490466792927282,0.03552273486862,0.08301171358999251,0.12418633520602232,0.1337036270749447,0.0668040679260898,0.004428405455731861,0.0,0.0,0.0,0.0,0.0,0.0,0.0,0.0,0.0,0.0,0.0,0.0,0.0,0.0,0.030905336367832187,0.07848781691149556,0.10986464119173046,0.0043349036334410255,0.2358434262250728,0.08433068610443557,0.3062284150048541,0.21058997660465045,0.11118361370617352,0.00951729186892238,0.0,0.0,0.0,0.0,0.0,0.0,0.0,0.0,0.0,0.0,0.0,0.0,0.0,0.0,0.09064305380930404,0.21134395938439995,0.2807879617398501,0.11900394697054095,0.2116264542517467,0.21106146451705315,0.17242929670714435,0.14972227969379148,0.07858330813426066,0.006218865882577626,0.0,0.0,0.0,0.0,0.0,0.0,0.0,0.0,0.0,0.0,0.0,0.0,0.0,0.0,0.13794303948562062,0.3160282017411233,0.4486933617684975,0.5315180717139083,0.5630818996387249,0.5481952158897395,0.48223863256569,0.3696405551223084,0.20145067082583992,0.03957315423423997,0.0,0.0,0.0,0.0,0.0,0.0,0.0,0.0,0.0,0.0,0.0,0.0,0.0,0.0,0.15000477456113825,0.3346828099883819,0.4709308802699218,0.5534711059475116,0.5836224595355943,0.5629883978164341,0.492320914169306,0.3752944312701924,0.2033346330749765,0.038632167809908816,0.0,0.0,0.0,0.0,0.0,0.0,0.0,0.0,0.0,0.0,0.0,0.0,0.0,0.0,0.11853444845861252,0.28069247051708496,0.4400255439020897,0.3943270256075629,0.4457729218722646,0.459814110419684,0.4616025814460554,0.35022997469482603,0.1895779287953782,0.03542724364585489,0.0,0.0,0.0,0.0,0.0,0.0,0.0,0.0,0.0,0.0,0.0,0.0,0.0,0.0,0.12032490888545827,0.11947543488294368,0.42692932057995,0.4896809797399456,0.4385175783425907,0.4198629700953321,0.3539043973708084,0.18091011092897044,0.09554294717743862,0.010175783425906769,0.0,0.0,0.0,0.0,0.0,0.0,0.0,0.0,0.0,0.0,0.0,0.0,0.0,0.0,0.12249136600194165,0.2855943532856938,0.07537838397020674,0.09931286107618607,0.22227372559005615,0.25751396559132944,0.2109679626947623,0.1367195581939427,0.07255343529673898,0.008385322999061003,0.0,0.0,0.0,0.0,0.0,0.0,0.0,0.0,0.0,0.0,0.0,0.0,0.0,0.0,0.12588329381057725,0.28898429169385514,0.15490466792927282,0.3295004217529005,0.25807895532602304,0.12051191253003996,0.15452668183916096,0.12927522161921284,0.06699306097114573,0.03165931914758169,0.0,0.0,0.0,0.0,0.0,0.0,0.0,0.0,0.0,0.0,0.0,0.0,0.0,0.0,0.05832524310473796,0.14416190536819826,0.2322625053713813,0.3980969395063104,0.23103703467922904,0.3017045183263572,0.3064174080499101,0.24724468034313185,0.13794303948562062,0.02421498257285185,0.0,0.0,0.0,0.0,0.0,0.0,0.0,0.0,0.0,0.0,0.0,0.0,0.0,0.0,0.15188873681027487,0.3361907755478809,0.4705548835802842,0.5514936418760843,0.5812670093740551,0.5630818996387249,0.4973143093597314,0.3871671733006541,0.2298115639870769,0.05662828450018303,0.0,0.0,0.0,0.0,0.0,0.0,0.0,0.0,0.0,0.0,0.0,0.0,0.0,0.0,0.1403004790476342,0.3186661467700094,0.4471873856094728,0.5422588448745087,0.5754261295815892,0.5626124011267964,0.4985397800518836,0.3774608883866758,0.22444217210701384,0.0557807998981427,0.0,0.0,0.0,0.0,0.0,0.0,0.0,0.0,0.0,0.0,0.0,0.0,0.0,0.0,0.13728454792863626,0.3150852259163179,0.4436999665780721,0.4093092005793134,0.4543472379163815,0.4131726163003517,0.37284348988588795,0.2974651059156813,0.17648170547323858,0.04268258717552878,0.0,0.0,0.0,0.0,0.0,0.0,0.0,0.0,0.0,0.0,0.0,0.0,0.0,0.0,0.05719327423487657,0.13549408750179048,0.2455477217385769,0.3130122706221253,0.35861728709436125,0.3291244250632629,0.1946668152085688,0.15848558878296434,0.08941758311715182,0.01460418888163863,0.0,0.0,0.0,0.0,0.0,0.0,0.0,0.0,0.0,0.0,0.0,0.0,0.0,0.0,0.030151353588082692,0.08093875829579998,0.3759529228271769,0.4686709213311477,0.5413178584501774,0.5369829548167365,0.4796941893590948,0.3745404484904429,0.21831680804672704,0.05521581016344914,0.0,0.0,0.0,0.0,0.0,0.0,0.0,0.0,0.0,0.0,0.0,0.0,0.0,0.0,0.12484681616348098,0.2901162605637165,0.4092156987570226,0.3460840641064409,0.40676475737271817,0.5296321200642974,0.3200786211067433,0.1462348606623908,0.08187974472013114,0.014793181926694569,0.0,0.0,0.0,0.0,0.0,0.0,0.0,0.0,0.0,0.0,0.0,0.0,0.0,0.0,0.12908622857415689,0.3104678274155301,0.4532172584469945,0.5523411264781246,0.5733531742873967,0.5586534941829929,0.4960888386675792,0.3903701080642338,0.2285880826953989,0.0595487243964159,0.0,0.0,0.0,0.0,0.0,0.0,0.0,0.0,0.0,0.0,0.0,0.0,0.0,0.0,0.1409589706046186,0.31753417790014804,0.4594361243295721,0.5441428071236453,0.5780640746104754,0.5635533875511276,0.5057951235815575,0.3960239842121179,0.2326385020610189,0.06143467604602677,0.0,0.0,0.0,0.0,0.0,0.0,0.0,0.0,0.0,0.0,0.0,0.0,0.0,0.0,0.1486858020466952,0.33336383747393883,0.4675409418617605,0.5474412331099899,0.5997366033772062,0.5843784317158179,0.5193628348160998,0.39724746550379575,0.24441774226918975,0.06699306097114573,0.0,0.0,0.0,0.0,0.0,0.0,0.0,0.0,0.0,0.0,0.0,0.0,0.0,0.0,0.145952365795044,0.32554350420957145,0.4551967119188962,0.5330260372734072,0.5621409132143937,0.5452747759935066,0.4861020482867283,0.3833037575796158,0.2322625053713813,0.06247115369312305,0.0,0.0,0.0,0.0,0.0,0.0,0.0,0.0,0.0,0.0,0.0,0.0,0.0,0.0,0.037595690162812535,0.09413047284070472,0.1425604379864084,0.0814102462082027,0.2360304298696545,0.06294065220505149,0.0656740884567027,0.0009429758248054367,0.0,0.0,0.0,0.0,0.0,0.0,0.0,0.0,0.0,0.0,0.0,0.0,0.0,0.0,0.0,0.0,0.034675250266579666,0.10185531488230706,0.28785431222446806,0.3074538856970063,0.5804195247720146,0.5678882911845686,0.2683502299746948,0.23282749510607484,0.13540058567949964,0.030057851765791864,0.0,0.0,0.0,0.0,0.0,0.0,0.0,0.0,0.0,0.0,0.0,0.0,0.0,0.0,0.03919715754460236,0.1016683112377254,0.11815646236850065,0.29407317810704564,0.6204661563191317,0.6100058886254038,0.5444253019909919,0.4297562586538921,0.2593044260181752,0.07349442172107014,0.0,0.0,0.0,0.0,0.0,0.0,0.0,0.0,0.0,0.0,0.0,0.0,0.0,0.0,0.1554696576639664,0.3423161396081677,0.4770562443302087,0.5578060095809527,0.5914427927999618,0.57712109878567,0.5169138828322697,0.40978068849171617,0.2566664809892891,0.07519138032562507,0.0,0.0,0.0,0.0,0.0,0.0,0.0,0.0,0.0,0.0,0.0,0.0,0.0,0.0,0.14812081231200167,0.3271449715913612,0.45510122069613107,0.533402033963045,0.5655328410230294,0.5500791781388761,0.4939223815510958,0.39413803256250696,0.2463952063406172,0.07264693711902982,0.0,0.0,0.0,0.0,0.0,0.0,0.0,0.0,0.0,0.0,0.0,0.0,0.0,0.0,0.0982763834290898,0.22528965670905415,0.2596804227078128,0.3854702146960992,0.4315467190807378,0.41354861298998935,0.37651990196234464,0.2769245460188118,0.1696023586332023,0.04843195454617796,0.0,0.0,0.0,0.0,0.0,0.0,0.0,0.0,0.0,0.0,0.0,0.0,0.0,0.0,0.11683748985405758,0.2729676284754827,0.2644868142536565,0.4912844365222097,0.5183263571690035,0.3760484140499419,0.05219987904445117,0.3655881463562141,0.21596135788518767,0.060774195088568114,0.0,0.0,0.0,0.0,0.0,0.0,0.0,0.0,0.0,0.0,0.0,0.0,0.0,0.0,0.03307179348431556,0.053236356691547436,0.08027827733834132,0.12409283338373148,0.09799388856174304,0.068029538618242,0.06897251444304743,0.02675942577944711,0.0137567042795983,0.0002824948673467764,0.0,0.0,0.0,0.0,0.0,0.0,0.0,0.0,0.0,0.0,0.0,0.0,0.0,0.0,0.15565865070902232,0.3392067066668789,0.4722498527843649,0.554507583594608,0.5880528543918006,0.5749546416691866,0.5202103194181401,0.4180725096684863,0.2573249725462735,0.08150374803049354,0.0,0.0,0.0,0.0,0.0,0.0,0.0,0.0,0.0,0.0,0.0,0.0,0.0,0.0,0.1478383174446549,0.3268624767240144,0.4573631690353796,0.5357574841245842,0.568546782741553,0.5568630337561473,0.5014602199481164,0.32186908153358906,0.214170897458342,0.08093875829579998,0.0,0.0,0.0,0.0,0.0,0.0,0.0,0.0,0.0,0.0,0.0,0.0,0.0,0.0,0.04617000620692948,0.14161945156207725,0.241119316282845,0.2440397561790779,0.31395524644693074,0.2965221300908758,0.2676897490172361,0.19259385991437625,0.11815646236850065,0.033921267486830164,0.0,0.0,0.0,0.0,0.0,0.0,0.0,0.0,0.0,0.0,0.0,0.0,0.0,0.0,0.1555631594862572,0.3419381535180558,0.4845940827272293,0.5676992981395127,0.60275054509573,0.5922922668024764,0.5319895596263111,0.42881328282908665,0.2670312574602518,0.08913508824980504,0.0,0.0,0.0,0.0,0.0,0.0,0.0,0.0,0.0,0.0,0.0,0.0,0.0,0.0,0.15613013862142505,0.3328943389620104,0.4617915744911114,0.5411288654051215,0.5734466761096876,0.5645898651982239,0.5112600066843856,0.4138311078573361,0.26693576623748666,0.09083204685435996,0.0,0.0,0.0,0.0,0.0,0.0,0.0,0.0,0.0,0.0,0.0,0.0,0.0,0.0,0.1549981697515637,0.1344576098546942,0.31536772078366465,0.3918780736237328,0.4471873856094728,0.43804807983066224,0.37736738656438495,0.1080741807648847,0.07811182022185795,0.05154138748746678,0.0,0.0,0.0,0.0,0.0,0.0,0.0,0.0,0.0,0.0,0.0,0.0,0.0,0.0,0.0,0.11975792975029045,0.3229055591806853,0.4528412617573568,0.5900303184632281,0.5895588305508253,0.5401858895803161,0.4392715611223402,0.2772070408861586,0.09752240064934033,0.0,0.0,0.0,0.0,0.0,0.0,0.0,0.0,0.0,0.0,0.0,0.0,0.0,0.0,0.111937596485923,0.2985015835627775,0.4465288940524884,0.5964381773908615,0.5040046631547117,0.5665693186701255,0.5562045421991629,0.4320162175926663,0.1669644136043162,0.08122125316314675,0.0,0.0,0.0,0.0,0.0,0.0,0.0,0.0,0.0,0.0,0.0,0.0,0.0,0.0,0.08235123263253387,0.10929965145703692,0.08235123263253387,0.12409283338373148,0.0821642289879522,0.34307012238791723,0.3124472808874318,0.2267976222685532,0.07877031177884232,0.01083626438336543,0.0,0.0,0.0,0.0,0.0,0.0,0.0,0.0,0.0,0.0,0.0,0.0,0.0,0.0,0.006125364060286792,0.03957315423423997,0.06190417455795521,0.22151974281030667,0.2666532713701399,0.12418633520602232,0.17987363328187414,0.07839431508920472,0.04758248054366336,0.08960657616220777,0.0,0.0,0.0,0.0,0.0,0.0,0.0,0.0,0.0,0.0,0.0,0.0,0.0,0.0,0.039008164499546416,0.03712420225040982,0.14397490172361654,0.28201144303152803,0.2586439450607165,0.3235640507376697,0.35362389190393584,0.4264578326675473,0.27569907532665955,0.0989348749860742,0.0,0.0,0.0,0.0,0.0,0.0,0.0,0.0,0.0,0.0,0.0,0.0,0.0,0.0,0.031283322457944074,0.07943079273630099,0.14859031082393012,0.5533776041252209,0.2076695367084176,0.20653955723903045,0.23442896248786466,0.17638820365094776,0.0043349036334410255,0.09196202632374707,0.0,0.0,0.0,0.0,0.0,0.0,0.0,0.0,0.0,0.0,0.0,0.0,0.0,0.0,0.05003342192796779,0.2223692168128213,0.4806371651839002,0.5737311603775087,0.6056729743924371,0.60275054509573,0.5477237279773368,0.4458684130950297,0.28860829500421753,0.1088281635446342,0.0,0.0,0.0,0.0,0.0,0.0,0.0,0.0,0.0,0.0,0.0,0.0,0.0,0.015923161396081676,0.1834545541355657,0.3661551254913819,0.5016492129931724,0.5810800057294734,0.614340792258845,0.6015250744035777,0.5468762433752964,0.4469983925644168,0.2985015835627775,0.11438853787022744,0.0,0.0,0.0,0.0,0.0,0.0,0.0,0.0,0.0,0.0,0.0,0.0,0.0,0.016205656263428455,0.17685770216287622,0.3528679197237121,0.4801656772714975,0.5578060095809527,0.5910667961103242,0.5821164833765696,0.5474412331099899,0.4338066780195121,0.288043305269524,0.11090111883882674,0.0,0.0,0.0,0.0,0.0,0.0,0.0,0.0,0.0,0.0,0.0,0.0,0.0,0.020447058074578646,0.18590350611939588,0.3662486273136728,0.5098455429471774,0.5715627138605509,0.6028460363184951,0.5064536151385418,0.4802591790937883,0.36813258956280936,0.2906812502984101,0.06275364856046982,0.0,0.0,0.0,0.0,0.0,0.0,0.0,0.0,0.0,0.0,0.0,0.0,0.0,0.00037599668963761077,0.10326977861951522,0.2364084159597664,0.3341178202536884,0.3803813282829087,0.4489778460363185,0.4751722820810721,0.3160282017411233,0.2779610236659081,0.19702226537010809,0.0668040679260898,0.0,0.0,0.0,0.0,0.0,0.0,0.0,0.0,0.0,0.0,0.0,0.0,0.0,0.004521907278022696,0.16639942386962264,0.3336463323412856,0.4675389524612862,0.5491381917145449,0.5830574698009008,0.574105167666672,0.5235067560040106,0.42315940668120255,0.270799181958525,0.1046822529562491,0.0,0.0,0.0,0.0,0.0,0.0,0.0,0.0,0.0,0.0,0.0,0.0,0.0,0.0,0.0247799723075454,0.035144748778508116,0.1114661085735203,0.1559411455763691,0.16630592204733186,0.2013571690035491,0.12823874397211654,0.11127910492893862,0.1184389572358474,0.044003549090446105,0.0,0.0,0.0,0.0,0.0,0.0,0.0,0.0,0.0,0.0,0.0,0.0,0.0,0.0,0.002733436251651202,0.1215483901771362,0.2162438527525345,0.2799404771378098,0.4233483997262585,0.48374659812518894,0.3784973660337721,0.46819943341874504,0.17667069851829453,0.060491700221221335,0.0,0.0,0.0,0.0,0.0,0.0,0.0,0.0,0.0,0.0,0.0,0.0,0.0,0.01988206833988509,0.06171717091337355,0.1330451355179603,0.23452445371062974,0.32460251778524024,0.6278150016710964,0.6061444623048399,0.5522476246558338,0.4538777394044531,0.3062284150048541,0.12352784364903792,0.0,0.0,0.0,0.0,0.0,0.0,0.0,0.0,0.0,0.0,0.0,0.0,0.0,0.02544045326500406,0.1887304441933379,0.3650231566215206,0.4913779383445005,0.568546782741553,0.5959666894784589,0.5841894386707622,0.5342495185650853,0.43889556443270256,0.2965221300908758,0.12022941766269317,0.0,0.0,0.0,0.0,0.0,0.0,0.0,0.0,0.0,0.0,0.0,0.0,0.0,0.023178504925755572,0.07179945251698948,0.3003855458119141,0.3630456925500931,0.5614804322569351,0.5909732942880334,0.5805150159947797,0.5300101061544092,0.4350321487116643,0.2943556729743924,0.11429304664746233,0.0,0.0,0.0,0.0,0.0,0.0,0.0,0.0,0.0,0.0,0.0,0.0,0.0,0.010271274648671877,0.038160679897506086,0.18778746836853247,0.17667069851829453,0.24394625435678705,0.33487180303343783,0.2730611302977735,0.34834601244568936,0.17167531392739485,0.05351885155889422,9.350182229083443e-05,0.0,0.0,0.0,0.0,0.0,0.0,0.0,0.0,0.0,0.0,0.0,0.0,0.0,0.0,0.004899893368134579,0.002448951983830153,0.029492862031098306,0.1912748873999332,0.13276065125013925,0.30632191682714505,0.3323273598268426,0.220013766651282,0.02412148075056101,0.11306956535578437,0.0,0.0,0.0,0.0,0.0,0.0,0.0,0.0,0.0,0.0,0.0,0.0,0.0,0.034014769309121,0.2131344198112457,0.4034663313863734,0.5404683844476629,0.6258355481991946,0.6570233794343737,0.6214071427434628,0.5677947893622779,0.4675389524612862,0.3209261057087837,0.1356830805468464,0.0,0.0,0.0,0.0,0.0,0.0,0.0,0.0,0.0,0.0,0.0,0.0,0.0,0.03599422278102271,0.2089885092228606,0.384244744003947,0.5093740550347747,0.5853194181401493,0.615659764773288,0.6028460363184951,0.5499856763165853,0.4541602342717999,0.31084581350564194,0.13087668900100266,0.0,0.0,0.0,0.0,0.0,0.0,0.0,0.0,0.0,0.0,0.0,0.0,0.0,0.02393248770550507,0.18920193210574066,0.29680462495822263,0.4099676921362978,0.4973143093597314,0.4975968042270781,0.4977857972721341,0.29840808174048666,0.20908400044562567,0.2866288415323158,0.12560079894323048,0.0,0.0,0.0,0.0,0.0,0.0,0.0,0.0,0.0,0.0,0.0,0.0,0.0,0.013663202457307469,0.11636600194165488,0.2614708831346585,0.31216478602008496,0.3803813282829087,0.3712420225040982,0.458117151815129,0.3405256791813219,0.17195780879474162,0.053801346426240994,0.05332985851383827,0.0,0.0,0.0,0.0,0.0,0.0,0.0,0.0,0.0,0.0,0.0,0.0,0.0,0.02921036716375153,0.1432209189438671,0.1929698566040138,0.3197026244171057,0.4439844508458931,0.4378590867856063,0.4029013416516799,0.3488175003580921,0.3373227444177423,0.19579679467795585,0.04541602342717999,0.0,0.0,0.0,0.0,0.0,0.0,0.0,0.0,0.0,0.0,0.0,0.0,0.0,0.015547164706444069,0.08621464835357218,0.22726911018095586,0.23452445371062974,0.2935081883723521,0.3572028233571531,0.4147740836821415,0.3661551254913819,0.3243180335174192,0.23518294526761416,0.07302293380866742,0.0,0.0,0.0,0.0,0.0,0.0,0.0,0.0,0.0,0.0,0.0,0.0,0.0,0.0420240956185444,0.2123804370314962,0.3808528161953114,0.5014602199481164,0.5694897585663584,0.6164137475530375,0.5983221396399981,0.5383019273311794,0.4340891728868588,0.2839908965034297,0.12333885060398198,0.0,0.0,0.0,0.0,0.0,0.0,0.0,0.0,0.0,0.0,0.0,0.0,0.0,0.04598101316187354,0.2275496156478284,0.4104391800487005,0.5424478379195645,0.6231976031703086,0.6542919325831967,0.6414762147279296,0.5260531886110802,0.4829926153454394,0.30660441169449176,0.1471778364871962,0.0,0.0,0.0,0.0,0.0,0.0,0.0,0.0,0.0,0.0,0.0,0.0,0.0,0.044755542469721334,0.20804752279852945,0.3550363662406697,0.5433888243438957,0.615659764773288,0.6418542008180415,0.6234800980376554,0.5561110403768721,0.4325831967278341,0.288043305269524,0.1238103385163847,0.0,0.0,0.0,0.0,0.0,0.0,0.0,0.0,0.0,0.0,0.0,0.0,0.0,0.04758248054366336,0.021294542676618976,0.41599955437429376,0.1822290834434135,0.2231231995925708,0.3077363805643531,0.6582488501265259,0.5873923734343419,0.4845940827272293,0.3254500023872806,0.14661284675250266,0.0,0.0,0.0,0.0,0.0,0.0,0.0,0.0,0.0,0.0,0.0,0.0,0.0,0.052671366956853885,0.23433546066557384,0.4072362452851209,0.5280306526825077,0.6015250744035777,0.6305464485222733,0.6202771632740758,0.5638358824184744,0.4698944026228256,0.3262974869893209,0.1471778364871962,0.0,0.0,0.0,0.0,0.0,0.0,0.0,0.0,0.0,0.0,0.0,0.0,0.0,0.055874301720433533,0.24771417885506025,0.42824829309439305,0.5602549615647828,0.6392162557891553,0.6695566024222941,0.6541964413604316,0.5967206722582082,0.4790356978021104,0.3353432909458406,0.15358569541482978,0.00782033326436745,0.0,0.0,0.0,0.0,0.0,0.0,0.0,0.0,0.0,0.0,0.0,0.0,0.056534782677892186,0.24168430601753854,0.4199564719176229,0.543295322521605,0.6142453010360798,0.6181087167571181,0.6053884901246159,0.5499856763165853,0.4502013273279965,0.3142377413142775,0.14152396033931214,0.005371381280537298,0.0,0.0,0.0,0.0,0.0,0.0,0.0,0.0,0.0,0.0,0.0,0.0,0.05559180685308676,0.2172803303996308,0.4114756576957968,0.5371719478617923,0.6083109194213232,0.6324324001718843,0.6239515859500581,0.5406573774927188,0.44502092849298935,0.3080188754316999,0.13813203253067655,0.004806391545843745,0.0,0.0,0.0,0.0,0.0,0.0,0.0,0.0,0.0,0.0,0.0,0.0,0.05832524310473796,0.2386703642990149,0.4093092005793134,0.5345320134324321,0.6076504384638646,0.6398747473461398,0.6289449811404836,0.5741071570671463,0.4778102271099581,0.3228120573583945,0.1471778364871962,0.008480814221826111,0.0,0.0,0.0,0.0,0.0,0.0,0.0,0.0,0.0,0.0,0.0,0.0,0.053047363646491486,0.2051250935018223,0.4092156987570226,0.4761132685054032,0.6010555758916494,0.6240450877723489,0.6091584040233635,0.5537536008148584,0.4531237566247036,0.2320735123263253,0.14161945156207725,0.007161841707383062,0.0,0.0,0.0,0.0,0.0,0.0,0.0,0.0,0.0,0.0,0.0,0.0,0.05936172075183423,0.23216701414861615,0.3146137380039152,0.3641756720194802,0.38688467843330737,0.5668518135374723,0.6126438336542901,0.3780258781213694,0.4471873856094728,0.3034014769309121,0.14001599477981316,0.006407858927633569,0.0,0.0,0.0,0.0,0.0,0.0,0.0,0.0,0.0,0.0,0.0,0.0,0.05059841166266135,0.18157059188642916,0.35013647287253513,0.5207753091528337,0.5970966689478461,0.4760197666831124,0.5204928142854869,0.4498253306383588,0.4088377126669107,0.29680462495822263,0.14199544825171487,0.008009326309423392,0.0,0.0,0.0,0.0,0.0,0.0,0.0,0.0,0.0,0.0,0.0,0.0,0.044286043957792884,0.15810760269285248,0.1585790906052552,0.09017156589690133,0.2428142854869257,0.3293134181083189,0.6123613387869432,0.5574280234908409,0.4630170451832636,0.32309455222574124,0.14529387423805964,0.010458278293253544,0.0,0.0,0.0,0.0,0.0,0.0,0.0,0.0,0.0,0.0,0.0,0.0,0.06850102653064473,0.2486571546798657,0.4150565785494883,0.4024298537392771,0.6057644868142537,0.6280039947161524,0.6184847134467557,0.5661913325800136,0.4714978594050897,0.3309148854901087,0.15123024525329049,0.012344229942864418,0.0,0.0,0.0,0.0,0.0,0.0,0.0,0.0,0.0,0.0,0.0,0.0,0.0715169576496427,0.2480921649451721,0.40676475737271817,0.5184198589912944,0.6013380707589961,0.6295119602756514,0.6127393248770551,0.486573536199131,0.4655614883898589,0.3173471742555664,0.1508522591631786,0.012248738720099309,0.0,0.0,0.0,0.0,0.0,0.0,0.0,0.0,0.0,0.0,0.0,0.0,0.07057398182483728,0.2434747664443843,0.3559773526650009,0.38556371651839005,0.4943938694634985,0.5511156557859723,0.4926969108589436,0.4791291996244012,0.4088377126669107,0.2008856810911464,0.09629692995718812,0.004806391545843745,0.0,0.0,0.0,0.0,0.0,0.0,0.0,0.0,0.0,0.0,0.0,0.0,0.009799786736269158,0.040894116149157285,0.06463761080960642,0.121830885044483,0.06529809176706508,0.04334306813298744,0.1486858020466952,0.2059745675043369,0.0156406665287349,0.1165549949867108,0.055309311985739976,9.350182229083443e-05,0.0,0.0,0.0,0.0,0.0,0.0,0.0,0.0,0.0,0.0,0.0,0.0,0.039008164499546416,0.12136138653255454,0.194195327296166,0.18194658857606671,0.272307147518024,0.22151974281030667,0.20833001766587625,0.22745611382553754,0.21916429264876736,0.0676535419286044,0.031283322457944074,0.0,0.0,0.0,0.0,0.0,0.0,0.0,0.0,0.0,0.0,0.0,0.0,0.0,0.011590247163114924,0.04909044610316235,0.18326556109050976,0.265429790078462,0.4480348702115131,0.6149057819935385,0.4965603265799819,0.4826146292553276,0.4513332961978578,0.19702226537010809,0.09459997135263318,0.005653876147884074,0.0,0.0,0.0,0.0,0.0,0.0,0.0,0.0,0.0,0.0,0.0,0.0,0.08376569636974203,0.0909255486766508,0.27927999618035104,0.44303948562061335,0.6295099708751771,0.6553284102302931,0.6484490633902568,0.59870012573011,0.5006127353460761,0.1837370490029125,0.09271600910349656,0.007631340219311506,0.0,0.0,0.0,0.0,0.0,0.0,0.0,0.0,0.0,0.0,0.0,0.0,0.09987785081087963,0.3023649992838158,0.4789402065793453,0.6047299985676317,0.6740785097003167,0.6977285025384751,0.6857622586857225,0.6216896376108095,0.5154059172727707,0.3623852115926344,0.1696023586332023,0.018467604602676938,0.0,0.0,0.0,0.0,0.0,0.0,0.0,0.0,0.0,0.0,0.0,0.0,0.0986523801187274,0.2915287349004504,0.4553837155634778,0.56722781022711,0.6292274760078304,0.6464715993188294,0.6416652077729855,0.5784420607005872,0.4771497461524995,0.3364732704152277,0.16347898397338978,0.01762012000063661,0.0,0.0,0.0,0.0,0.0,0.0,0.0,0.0,0.0,0.0,0.0,0.0,0.0974269094265752,0.2833324049464453,0.44087501790460426,0.5723166966403005,0.6395922524787929,0.3535284006811707,0.655139417185237,0.5944587239189598,0.4966538284022727,0.3414686550061274,0.1673423996944281,0.0210120478092722,0.0,0.0,0.0,0.0,0.0,0.0,0.0,0.0,0.0,0.0,0.0,0.0,0.09601443508984132,0.27833900975601994,0.43804807983066224,0.5512111470087375,0.2961461334012382,0.5041916667992934,0.513426463800869,0.3862241974758487,0.24667770120796395,0.19193337895691756,0.09469546257539828,0.008950312733754556,0.0,0.0,0.0,0.0,0.0,0.0,0.0,0.0,0.0,0.0,0.0,0.0,0.010647271338309488,0.02355649101586746,0.02581644995464167,0.0874401190457244,0.194384320341222,0.2665597695478491,0.34288112934286125,0.2705166870911782,0.2676897490172361,0.12691977145767352,0.06369463498480099,0.00405240876609425,0.0,0.0,0.0,0.0,0.0,0.0,0.0,0.0,0.0,0.0,0.0,0.0,0.0041459105883850855,0.017809113045692552,0.06671056610379897,0.103552273486862,0.10722669616284436,0.1145755415148091,0.07877031177884232,0.08894808460522337,0.07660385466235896,0.041835102573488464,0.01931508920471726,0.0,0.0,0.0,0.0,0.0,0.0,0.0,0.0,0.0,0.0,0.0,0.0,0.0,0.0017904604268457656,0.0016969586045549314,0.02986885872073592,0.050315916795314566,0.08923057947257015,0.06407262107491286,0.07651035284006813,0.04598101316187354,0.09384797797335796,0.07773383413174606,0.037595690162812535,0.0009429758248054367,0.0,0.0,0.0,0.0,0.0,0.0,0.0,0.0,0.0,0.0,0.0,0.0,0.102044307927363,0.2784325115783108,0.4287197810067958,0.5340625149205036,0.3353432909458406,0.2903032642082982,0.3890511355497908,0.3056634252701605,0.48374659812518894,0.1593330733850047,0.16441997039772094,0.02204852545636847,0.0,0.0,0.0,0.0,0.0,0.0,0.0,0.0,0.0,0.0,0.0,0.0,0.02836089316123693,0.13926400140053793,0.2799404771378098,0.3209261057087837,0.2801274807823914,0.3055679340473955,0.3591822768290548,0.3083013702990467,0.4134551111676985,0.23669091082711316,0.12136138653255454,0.016866137220887114,0.0,0.0,0.0,0.0,0.0,0.0,0.0,0.0,0.0,0.0,0.0,0.0,0.11306956535578437,0.2952031575764328,0.4037508156541945,0.4732863304314612,0.5530951092578741,0.578818057390225,0.5557330542867601,0.5056996323587923,0.4127946302102399,0.24309876975474676,0.1238103385163847,0.018091607913039327,0.0,0.0,0.0,0.0,0.0,0.0,0.0,0.0,0.0,0.0,0.0,0.0,0.10939315327932776,0.2535570480480002,0.3201741123295084,0.36021875447615104,0.3778388744767877,0.4202389667849697,0.5077745770534592,0.4313577260356819,0.2491286425922684,0.13756704279598306,0.06831203348558879,0.0072553435296738985,0.0,0.0,0.0,0.0,0.0,0.0,0.0,0.0,0.0,0.0,0.0,0.0,0.05399033947129693,0.1313481769134054,0.20785852975347352,0.5580885044482995,0.6167897442426751,0.643927156112234,0.6263070361115974,0.5748611398468957,0.4784687186669425,0.3296894147979565,0.07886580300160742,0.023178504925755572,0.0,0.0,0.0,0.0,0.0,0.0,0.0,0.0,0.0,0.0,0.0,0.0,0.11353906386771286,0.283519408591027,0.2627898556491016,0.3666246240033104,0.4704613817579935,0.6158487578183439,0.5961556825235147,0.5435778173889517,0.4540647430490347,0.3229055591806853,0.09403498161793962,0.013474209412251524,0.0,0.0,0.0,0.0,0.0,0.0,0.0,0.0,0.0,0.0,0.0,0.0,0.01931508920471726,0.09808739038403387,0.1712993172377572,0.18665748889914532,0.2749450925469101,0.3966824757691022,0.4347496538443175,0.42202942721181547,0.4784687186669425,0.22510066366399825,0.07321192685372338,0.009610793691213216,0.0,0.0,0.0,0.0,0.0,0.0,0.0,0.0,0.0,0.0,0.0,0.0,0.12710876450272945,0.3183836519026626,0.4796006875368039,0.5917272770677828,0.6565538809224453,0.6816163480973374,0.663713733229354,0.6047299985676317,0.5056061305365015,0.36021875447615104,0.17930864354718062,0.02675942577944711,0.0,0.0,0.0,0.0,0.0,0.0,0.0,0.0,0.0,0.0,0.0,0.0013189725144430475,0.1298402113539064,0.3096203428134897,0.4651854917002212,0.5582755080928812,0.6231041013480177,0.6472255820985787,0.6536314516257381,0.5743896519344931,0.4783752168446517,0.3410906689160155,0.1737482692215874,0.027702401604252545,0.0,0.0,0.0,0.0,0.0,0.0,0.0,0.0,0.0,0.0,0.0,0.004806391545843745,0.13596557541419318,0.31904214345964704,0.4717803542724365,0.5783465694778221,0.6366718125825601,0.6544789362277784,0.6388382696990434,0.5856954148297869,0.4928859039039995,0.3532459058138239,0.18147510066366396,0.029492862031098306,0.0,0.0,0.0,0.0,0.0,0.0,0.0,0.0,0.0,0.0,0.0,0.003485429630926424,0.1173089777664603,0.2264196361784413,0.34175114987347416,0.384244744003947,0.4779992201550141,0.4105346712714657,0.5388669170658731,0.2924717107252558,0.30575692709245145,0.3339308166091067,0.1636679770184457,0.026665923957156272,0.0,0.0,0.0,0.0,0.0,0.0,0.0,0.0,0.0,0.0,0.0,0.0,0.1085456686772874,0.16752940333900976,0.15584565435360398,0.17224229306256267,0.2735326182101762,0.3567313354447504,0.21256943007655213,0.19928421370935656,0.2047490968121847,0.12710876450272945,0.038536676587143694,0.01573615775150001,0.0,0.0,0.0,0.0,0.0,0.0,0.0,0.0,0.0,0.0,0.0,0.0,0.04353206117804339,0.13012270622125316,0.12333885060398198,0.5883353492591473,0.6691786163321822,0.6984824853182244,0.6629597504496045,0.6087804179332517,0.5104105326818711,0.3649296547992297,0.1804386230165677,0.029586363853389138,0.0,0.0,0.0,0.0,0.0,0.0,0.0,0.0,0.0,0.0,0.0,0.010647271338309488,0.1500982763834291,0.34589706046185925,0.5171943882991422,0.6333733865962154,0.7018744131268602,0.7232624576257699,0.7000839527000143,0.6345053554660768,0.5147454363153121,0.27221364569573314,0.14887479509175114,0.031848312192637625,0.0,0.0,0.0,0.0,0.0,0.0,0.0,0.0,0.0,0.0,0.0,0.011118759250712209,0.15056976429583185,0.3399606894466284,0.4994807664762148,0.6074614454188085,0.6708755749367371,0.6912271417885506,0.6702150939792784,0.6103838747155157,0.5089045565228463,0.3544713765059761,0.1841130456925501,0.032695796794677955,0.0,0.0,0.0,0.0,0.0,0.0,0.0,0.0,0.0,0.0,0.0,0.01309622332213964,0.1548091767065077,0.341655658650709,0.4905304537424602,0.5920097719351296,0.6492030461700062,0.6665406713032961,0.6456221253163147,0.5894653287285344,0.4960888386675792,0.3564488405774036,0.18439554055989685,0.031848312192637625,0.0,0.0,0.0,0.0,0.0,0.0,0.0,0.0,0.0,0.0,0.0,0.014039199146945078,0.15198422803304001,0.3365687616379928,0.489400474273073,0.5926682634921141,0.5703372431683987,0.6769989495965496,0.6584378431715818,0.60275054509573,0.5056996323587923,0.35315240399153314,0.18317205926821886,0.03222430888227524,0.0,0.0,0.0,0.0,0.0,0.0,0.0,0.0,0.0,0.0,0.0,0.014886683748985406,0.1471778364871962,0.32450702656247515,0.33251635287189857,0.29840808174048666,0.3357192876354781,0.1509477503859437,0.4709328696703962,0.5875813664793977,0.4846895739499945,0.3439176069899575,0.17271179157449112,0.03278929861696879,0.0,0.0,0.0,0.0,0.0,0.0,0.0,0.0,0.0,0.0,0.0,0.01441718523705696,0.1428429328537552,0.2059745675043369,0.3680390877405185,0.5691137618767208,0.4893984848725988,0.6545744274505435,0.6342208711982558,0.5828704661563191,0.4919429280791941,0.35588385084271,0.18157059188642916,0.03326078652937151,0.0,0.0,0.0,0.0,0.0,0.0,0.0,0.0,0.0,0.0,0.0,0.016772635398596282,0.14538737606035046,0.31272977575477856,0.3724674931962504,0.4530282654019385,0.19890622761924467,0.4281547912721022,0.5416003533175242,0.4536887463593972,0.26401532634125385,0.1712993172377572,0.08009127369375965,0.03062284150048541,0.0,0.0,0.0,0.0,0.0,0.0,0.0,0.0,0.0,0.0,0.0,0.014039199146945078,0.02468647048525456,0.09921736985342096,0.12908622857415689,0.1596155682523515,0.3036839717982589,0.4501078255057056,0.26712475928254265,0.25138860153104264,0.15179523498798406,0.12691977145767352,0.07651035284006813,0.03326078652937151,0.0,0.0,0.0,0.0,0.0,0.0,0.0,0.0,0.0,0.0,0.0,0.009045803956519664,0.05191738417710439,0.33336383747393883,0.35456487832826705,0.4219359253895246,0.4477523753441663,0.42231192207916224,0.4752657839033629,0.4244803685961199,0.3973429567265609,0.2751340855919661,0.17732919007527892,0.03608772460331355,0.0,0.0,0.0,0.0,0.0,0.0,0.0,0.0,0.0,0.0,0.0,0.0009429758248054367,0.008763309089172888,0.035616236690910824,0.05493331529610237,0.0569107793675298,0.09083204685435996,0.11212658953097897,0.2614708831346585,0.2303785431222447,0.174597743224102,0.11297407413301927,0.03231980010504034,0.0,0.0,0.0,0.0,0.0,0.0,0.0,0.0,0.0,0.0,0.0,0.0,0.02280250823611796,0.1666819187369694,0.3487239985358013,0.4857240621966165,0.581456002419111,0.6386512660544618,0.6566473827447359,0.6376127990068913,0.5865448888323015,0.4925079178138877,0.35805030795919346,0.18976692184043414,0.03674820556077221,0.0,0.0,0.0,0.0,0.0,0.0,0.0,0.0,0.0,0.0,0.0,0.0247799723075454,0.16677740995973453,0.3381702290197826,0.4758307736380564,0.5718452087278978,0.5211532952429455,0.6516539875543106,0.6268740152467653,0.5751436347142425,0.4806371651839002,0.10798067894259386,0.18693998376649212,0.03825418171979692,0.0,0.0,0.0,0.0,0.0,0.0,0.0,0.0,0.0,0.0,0.0,0.02544045326500406,0.17233579488485348,0.3593712698741107,0.512013989464135,0.6176392182451896,0.6786004169783394,0.6959380421116292,0.5961556825235147,0.4719673579170182,0.5206818073305429,0.3724674931962504,0.1612170356341413,0.03834967294256203,0.0,0.0,0.0,0.0,0.0,0.0,0.0,0.0,0.0,0.0,0.0,0.02675942577944711,0.1737482692215874,0.3588997819617079,0.5102235290372893,0.6154707717282321,0.6774704375089523,0.6956555472442825,0.6776594305540082,0.6189581907596327,0.5189848487259879,0.3750119364028456,0.11947543488294368,0.03910365572231152,0.0,0.0,0.0,0.0,0.0,0.0,0.0,0.0,0.0,0.0,0.0,0.027889405248834213,0.17440875017904606,0.3462730571514968,0.500895230213423,0.6037870227428263,0.6632422453169513,0.6803908774051851,0.6613582830678146,0.6019030604936897,0.34014769309121007,0.3555078541530724,0.1879764614135884,0.041835102573488464,0.0,0.0,0.0,0.0,0.0,0.0,0.0,0.0,0.0,0.0,0.0,0.0293973708083332,0.17553872964843314,0.34740303662088395,0.4856305603743256,0.5806085178170707,0.6346923591106584,0.6499570289497557,0.5664738274473604,0.5823989782439164,0.4875145226234622,0.35663783362245954,0.19400633425111008,0.04277807839829389,0.0,0.0,0.0,0.0,0.0,0.0,0.0,0.0,0.0,0.0,0.0,0.030057851765791864,0.17940214536947147,0.3512664523419222,0.5013667181258257,0.6005840879792466,0.6564583896996802,0.6763404580395652,0.6581553483042349,0.4588711345948785,0.5089980583451371,0.3682280807855745,0.1937238393837633,0.04193059379625357,0.0,0.0,0.0,0.0,0.0,0.0,0.0,0.0,0.0,0.0,0.0,0.015829659573790844,0.06623907819139624,0.2138884025909952,0.3657771394012701,0.4604726019766683,0.4914714401667914,0.5171963776996165,0.6168852354654402,0.5617629271242818,0.4706483854025751,0.3419381535180558,0.18270057135581624,0.040894116149157285,0.0,0.0,0.0,0.0,0.0,0.0,0.0,0.0,0.0,0.0,0.0,0.03062284150048541,0.11909943819330608,0.2581744465487881,0.35305691276876794,0.334967294256203,0.5796655419922653,0.2969001161809877,0.5623279168589753,0.3634216892397307,0.3339308166091067,0.19494931007591554,0.1015728200149603,0.032695796794677955,0.0,0.0,0.0,0.0,0.0,0.0,0.0,0.0,0.0,0.0,0.0,0.0091393057788105,0.058796731017140676,0.2801274807823914,0.207104546973724,0.4036553244314293,0.469329412888132,0.4785642098897076,0.23009405885442366,0.2257611446214569,0.2261371413110945,0.16338349275062464,0.09299850397084336,0.027702401604252545,0.0,0.0,0.0,0.0,0.0,0.0,0.0,0.0,0.0,0.0,0.0,0.032602294972387126,0.08612114653128132,0.2484681616348097,0.3448585934142887,0.2283055878280521,0.5195498384606815,0.5506441678735696,0.4259863447551446,0.3741644518008053,0.2456412235608677,0.17205330001750674,0.08819410182547388,0.02921036716375153,0.0,0.0,0.0,0.0,0.0,0.0,0.0,0.0,0.0,0.0,0.0,0.0009429758248054367,0.08772261391307115,0.020823054764216257,0.0320353158372193,0.12305635573663523,0.2483746598125189,0.32045660719685515,0.2533680550029443,0.22792760173794024,0.2593044260181752,0.21030748173730365,0.119288431238362,0.03429726417646778,0.0,0.0,0.0,0.0,0.0,0.0,0.0,0.0,0.0,0.0,0.0,0.0,0.1054362357359986,0.1114661085735203,0.10685069947320676,0.4202389667849697,0.35456487832826705,0.20814102462082024,0.2653342988556969,0.17327877070965894,0.15160624194292807,0.14190194642942405,0.03608772460331355,0.019786577117119983,0.0,0.0,0.0,0.0,0.0,0.0,0.0,0.0,0.0,0.0,0.0,0.00932829882386644,0.028643388028583707,0.07085647669218402,0.2663707765027932,0.6031285311858419,0.6529729600687537,0.6716275683160123,0.5768386039183232,0.6044475037002849,0.5104105326818711,0.3637041841070775,0.19881272579695386,0.04513352855983322,0.0,0.0,0.0,0.0,0.0,0.0,0.0,0.0,0.0,0.0,0.0,0.03655921251571626,0.1902384097528369,0.3593712698741107,0.4898699727850016,0.5806065284165964,0.6321499053045375,0.6454331322712588,0.6241385895946399,0.5705282256139289,0.4798831824041507,0.3516444384320341,0.19183987713462672,0.04277807839829389,0.0,0.0,0.0,0.0,0.0,0.0,0.0,0.0,0.0,0.0,0.0,0.036370219470660325,0.1880719526363535,0.3544713765059761,0.4816736428309965,0.5676057963172219,0.6168852354654402,0.6301704518326358,0.6135868094790954,0.5645918545986982,0.4780927219773049,0.35249192303407445,0.1941018254738752,0.044286043957792884,0.0,0.0,0.0,0.0,0.0,0.0,0.0,0.0,0.0,0.0,0.0,0.03891466267725558,0.18976692184043414,0.35805030795919346,0.4883620072255026,0.5787225661674599,0.6292274760078304,0.6427016854200818,0.6513714926869638,0.5732596724651059,0.4872320277561154,0.36021875447615104,0.19853023092960706,0.04598101316187354,0.0,0.0,0.0,0.0,0.0,0.0,0.0,0.0,0.0,0.0,0.0,0.03966864545700508,0.1887304441933379,0.3533394076361148,0.4798831824041507,0.5704327343911638,0.6191451944042143,0.6318654210367164,0.5710912259481483,0.5624234080817404,0.475076790858307,0.34787452453328666,0.19231136504702945,0.04701749080896981,0.0,0.0,0.0,0.0,0.0,0.0,0.0,0.0,0.0,0.0,0.0,0.04004464214664269,0.18769396654624165,0.34090167587095954,0.492036429901485,0.5829639679786099,0.5659108271131412,0.6539139464930849,0.6326213932169401,0.5774990848757818,0.48911599000525197,0.3491934970477297,0.19325434087183485,0.04729998567631659,0.0,0.0,0.0,0.0,0.0,0.0,0.0,0.0,0.0,0.0,0.0,0.03655921251571626,0.1582965957379084,0.29869057660783344,0.42683382935718495,0.30660441169449176,0.3294069199306097,0.56722781022711,0.5586554835834673,0.5126724810211195,0.3785928572565372,0.3441066000350135,0.1692263619435647,0.04833646332341286,0.0,0.0,0.0,0.0,0.0,0.0,0.0,0.0,0.0,0.0,0.0,0.04437954578008371,0.16790738942912165,0.27758303757579617,0.38019432463832703,0.3918780736237328,0.4759262648608216,0.5306685977113937,0.5036266770645998,0.4015823691372368,0.23273399328378397,0.16866137220887115,0.12079440739738673,0.03486225391116134,0.0,0.0,0.0,0.0,0.0,0.0,0.0,0.0,0.0,0.0,0.0,0.010458278293253544,0.12079440739738673,0.2239706841946111,0.3000095491222765,0.4262688396224914,0.4509553101077459,0.5053236356691547,0.597003167125555,0.540563875670428,0.4562331895659924,0.3335528305189948,0.18279407317810706,0.05050490984037051,0.0,0.0,0.0,0.0,0.0,0.0,0.0,0.0,0.0,0.0,0.0,0.033543281396718284,0.1054362357359986,0.21916429264876736,0.314707239826206,0.29209372463514394,0.30255399232887176,0.4519917877548422,0.4316402209030287,0.4884574984482677,0.39413803256250696,0.3384527238871294,0.1882589562809352,0.052293380866742005,0.0,0.0,0.0,0.0,0.0,0.0,0.0,0.0,0.0,0.0,0.0,0.04541602342717999,0.18750497350118567,0.3510794486973406,0.4828036223003835,0.4506728152403992,0.6060489710820748,0.6178262218897713,0.5982286378177073,0.5457462639059093,0.2395178489010552,0.3429746311651521,0.18939092515079656,0.05172839113204845,0.0,0.0,0.0,0.0,0.0,0.0,0.0,0.0,0.0,0.0,0.0,0.04409705091273694,0.18581000429710506,0.3461775659287317,0.2845558862381233,0.4866670380214218,0.6243275826396957,0.639781245523849,0.5978506517275953,0.4673519488167046,0.36728510496076905,0.2768310441965209,0.14991127273884744,0.0392906593668932,0.0,0.0,0.0,0.0,0.0,0.0,0.0,0.0,0.0,0.0,0.0,0.027041920646793883,0.007161841707383062,0.10119682332532268,0.19928421370935656,0.4506728152403992,0.3069804083841294,0.2674072541498894,0.4122296404755463,0.41703603202139006,0.21718682857733992,0.1470843346649054,0.10487124600130504,0.05465082042875559,0.0,0.0,0.0,0.0,0.0,0.0,0.0,0.0,0.0,0.0,0.0,0.04909044610316235,0.210120478092722,0.390087613196887,0.52765465599287,0.6217831394331005,0.6745480082122453,0.6858557605080133,0.6606043002880653,0.6038825139655913,0.5096585393025959,0.3770848916970382,0.20625706237168367,0.055309311985739976,0.0,0.0,0.0,0.0,0.0,0.0,0.0,0.0,0.0,0.0,0.0,0.04918394792545319,0.20211115178329855,0.3632326961946748,0.490812948609807,0.5765561090509764,0.6246100775070424,0.6373303041395445,0.6220676237009215,0.5666648098928907,0.4824276256107459,0.3565443318001687,0.20163966387089588,0.05512031894068404,0.0,0.0,0.0,0.0,0.0,0.0,0.0,0.0,0.0,0.0,0.0,0.027889405248834213,0.1990017188420098,0.3588997819617079,0.4856305603743256,0.5744831537567838,0.6236690910827113,0.6363893177152133,0.4479413683892222,0.5705262362134548,0.4800721754492066,0.3550363662406697,0.19956670857670333,0.05436633616093454,0.0,0.0,0.0,0.0,0.0,0.0,0.0,0.0,0.0,0.0,0.0,0.04909044610316235,0.19259385991437625,0.34787651393376096,0.4706483854025751,0.5558265561090511,0.6032220330081327,0.6159422596406348,0.5328370442283514,0.5560155491541069,0.11448203969251824,0.18015612814922094,0.19796524119491352,0.058136250059682024,0.0,0.0,0.0,0.0,0.0,0.0,0.0,0.0,0.0,0.0,0.0,0.05135239444241083,0.1574491111358681,0.34401110881224833,0.4652789935225121,0.5484777107570863,0.5959666894784589,0.5283131475498545,0.4022428500946955,0.15565865070902232,0.41910898731558255,0.2719311508283864,0.19523180494326228,0.059266229529069125,0.0,0.0,0.0,0.0,0.0,0.0,0.0,0.0,0.0,0.0,0.0,0.05088090653000812,0.18920193210574066,0.34288112934286125,0.4651835022997469,0.550646157274044,0.5990761224197476,0.3339308166091067,0.6050124934349784,0.5464982572851845,0.463486543695192,0.3429746311651521,0.1669644136043162,0.05785375519233524,0.0,0.0,0.0,0.0,0.0,0.0,0.0,0.0,0.0,0.0,0.0,0.050220425572549465,0.1929698566040138,0.35560135597536324,0.4838400999474798,0.5725056896853564,0.6231976031703086,0.6373303041395445,0.6216896376108095,0.5693942673435933,0.4810131618735378,0.3460840641064409,0.19881272579695386,0.05832524310473796,0.0,0.0,0.0,0.0,0.0,0.0,0.0,0.0,0.0,0.0,0.0,0.05078740470771728,0.19080339948753045,0.34316362421020796,0.4789402065793453,0.5716582050833161,0.6217831394331005,0.6353508506676429,0.6171657409323126,0.5644963633759329,0.4622630624035141,0.341655658650709,0.19702226537010809,0.058796731017140676,0.0,0.0,0.0,0.0,0.0,0.0,0.0,0.0,0.0,0.0,0.0,0.03165931914758169,0.184491031782662,0.31272977575477856,0.4193914821829293,0.5465937485079496,0.5510221539636815,0.5042871580220585,0.5562980440214537,0.4713088663600337,0.4207104546973724,0.3058504289147423,0.19391283242881927,0.0595487243964159,0.0,0.0,0.0,0.0,0.0,0.0,0.0,0.0,0.0,0.0,0.0,0.05201088599939522,0.16131053745643212,0.33769874110737985,0.4555727086085337,0.5368874635939714,0.5820229815542789,0.5976616586825394,0.5822099851988605,0.3213040917988955,0.3741644518008053,0.3340243184313975,0.16225351328123758,0.06209316760301116,0.0,0.0,0.0,0.0,0.0,0.0,0.0,0.0,0.0,0.0,0.0,0.05342534973660338,0.18543201820699312,0.3318578613149141,0.4501078255057056,0.5335910270081008,0.5811735075517642,0.5972856619929018,0.579948036859612,0.529351614597425,0.39065260293158055,0.3094313497684338,0.14821431413429248,0.05615679658778031,0.0,0.0,0.0,0.0,0.0,0.0,0.0,0.0,0.0,0.0,0.0,0.0458875113395827,0.18910843028344976,0.2967111231359317,0.3869781802555982,0.4858195534193816,0.4187310012254707,0.43644462304839815,0.4648075056101094,0.4137376060350453,0.40978068849171617,0.301987013193704,0.11787396750115385,0.0577602533700444,0.0,0.0,0.0,0.0,0.0,0.0,0.0,0.0,0.0,0.0,0.0,0.043908057867681004,0.1807211178839145,0.2927542055926026,0.3990379259306415,0.4867605398437127,0.5269941750354113,0.5677947893622779,0.5301990991994653,0.485254563684688,0.4688579249757293,0.35051246956217275,0.20418410707749116,0.05794725701462607,0.0,0.0,0.0,0.0,0.0,0.0,0.0,0.0,0.0,0.0,0.0,0.04824296150112202,0.1479318192669457,0.29313020228224024,0.3971559530819792,0.4624520554485701,0.5046631547116961,0.5427303327869113,0.5084330686104436,0.5013667181258257,0.4118536437859087,0.2716486559610396,0.1813815988413732,0.05898373466172235,0.0,0.0,0.0,0.0,0.0,0.0,0.0,0.0,0.0,0.0,0.0,0.04833646332341286,0.1822290834434135,0.2627898556491016,0.3884861458150972,0.4389890662549934,0.37793237629907855,0.20079217926885554,0.3650231566215206,0.4580236499928382,0.3683215826078653,0.288043305269524,0.1802496299715118,0.05983320866423695,0.0,0.0,0.0,0.0,0.0,0.0,0.0,0.0,0.0,0.0,0.0,0.04993793070520268,0.1776116849426257,0.31385975522416565,0.39404453074021617,0.4842180860375917,0.5050411408018081,0.5474412331099899,0.4931683987713463,0.4370116021835659,0.3495714831378416,0.27569907532665955,0.17572772269348907,0.02383898588321424,0.0,0.0,0.0,0.0,0.0,0.0,0.0,0.0,0.0,0.0,0.0,0.04560501647223593,0.1903319115751277,0.3394892015342257,0.4576456639027263,0.5391494119332199,0.5854129199624402,0.5987936275524008,0.5832464628459568,0.5350989925675999,0.4567046774783951,0.34288112934286125,0.2010746741362023,0.0645441089873156,0.0,0.0,0.0,0.0,0.0,0.0,0.0,0.0,0.0,0.0,0.0,0.046828497763913866,0.18920193210574066,0.3345893081660911,0.4523697738449541,0.5341560167427943,0.5794785383476836,0.28248293094393073,0.322058074578645,0.3997919087103911,0.4516157910652046,0.334967294256203,0.19730476023745486,0.05992671048652778,0.0,0.0,0.0,0.0,0.0,0.0,0.0,0.0,0.0,0.0,0.0,0.05483782407333726,0.10345877166457117,0.32724046281412633,0.4427589801537409,0.5243582194069996,0.4429479731987968,0.4133616093454077,0.2585504432384257,0.06247115369312305,0.2102139799150128,0.23131952954657586,0.16328999092833385,0.06115218117868,0.0,0.0,0.0,0.0,0.0,0.0,0.0,0.0,0.0,0.0,0.0,0.0504094186176054,0.1941018254738752,0.3499474798274792,0.4732863304314612,0.5593139751404517,0.6084979230659049,0.6231041013480177,0.5220942816672768,0.5634598857288368,0.4770562443302087,0.3589932837839989,0.2116264542517467,0.06529809176706508,0.0,0.0,0.0,0.0,0.0,0.0,0.0,0.0,0.0,0.0,0.0,0.05276486877914472,0.18741147167889485,0.3321403561822609,0.44765887352187533,0.528878137284548,0.5749546416691866,0.5909732942880334,0.5779705727881845,0.53170507535849,0.4538777394044531,0.24922214441455925,0.1699803447233142,0.0676535419286044,0.0,0.0,0.0,0.0,0.0,0.0,0.0,0.0,0.0,0.0,0.0,0.05154138748746678,0.189860423662725,0.21511387328314735,0.4548187258287842,0.2956746454888355,0.5876748683016887,0.5938002323619754,0.4531237566247036,0.5352859962121815,0.4554792067862429,0.3455190743717473,0.2055030795919342,0.06671056610379897,0.0,0.0,0.0,0.0,0.0,0.0,0.0,0.0,0.0,0.0,0.0,0.05154138748746678,0.18788295959129755,0.3342133114764535,0.4523697738449541,0.5287846354622571,0.4336196743749304,0.5977571499053046,0.576086610539048,0.5304815940668121,0.4532172584469945,0.3406191810036128,0.20371261916508845,0.06859452835293556,0.0,0.0,0.0,0.0,0.0,0.0,0.0,0.0,0.0,0.0,0.0,0.053236356691547436,0.1344576098546942,0.3308213836678179,0.4445474511801124,0.5237912402718317,0.5704327343911638,0.5843764423153439,0.5667583117151815,0.5213422882880016,0.3280879474161667,0.2325450002387281,0.1937238393837633,0.06294065220505149,0.0,0.0,0.0,0.0,0.0,0.0,0.0,0.0,0.0,0.0,0.0,0.053236356691547436,0.18505602151735556,0.3271449715913612,0.443888959623128,0.5257687043432592,0.3124472808874318,0.4172230356659717,0.09158602963410946,0.5041916667992934,0.4510508013305111,0.35136194356468736,0.20917750226791654,0.06482660385466235,0.0,0.0,0.0,0.0,0.0,0.0,0.0,0.0,0.0,0.0,0.0,0.052106377222160334,0.18581000429710506,0.33327033565164804,0.4502968185507616,0.5334955357853357,0.4018648640045835,0.6032220330081327,0.4784687186669425,0.22726911018095586,0.02421498257285185,0.03703070042811898,0.03420376235417695,0.02006907198446676,0.0,0.0,0.0,0.0,0.0,0.0,0.0,0.0,0.0,0.0,0.0,0.052106377222160334,0.1859970079416867,0.3291244250632629,0.4470918943867076,0.5301990991994653,0.4975968042270781,0.2586439450607165,0.3869781802555982,0.5383954291534704,0.4541602342717999,0.3436351121226107,0.17732919007527892,0.0721754492066271,0.0,0.0,0.0,0.0,0.0,0.0,0.0,0.0,0.0,0.0,0.0,0.02967986567567998,0.18194658857606671,0.3233770470930881,0.3572028233571531,0.5251102127862748,0.3690755653876148,0.2323560071936721,0.3508904556522846,0.44813036143427815,0.2967111231359317,0.08122125316314675,0.0051823882354813545,0.0668040679260898,0.0,0.0,0.0,0.0,0.0,0.0,0.0,0.0,0.0,0.0,0.0,0.052106377222160334,0.18383055082520333,0.3299719096653033,0.4499188324606496,0.5253927076536216,0.4126076265656582,0.2943556729743924,0.4348431556666084,0.4543472379163815,0.4545362309614375,0.33336383747393883,0.08838309487052982,0.0401401333694078,0.0,0.0,0.0,0.0,0.0,0.0,0.0,0.0,0.0,0.0,0.0,0.05201088599939522,0.18439554055989685,0.32865293715086025,0.4466223958747792,0.5296321200642974,0.3866001941654863,0.1344576098546942,0.5154059172727707,0.4669739627265927,0.3411841707383063,0.04042262823675457,0.07085647669218402,0.05125690321964573,0.0,0.0,0.0,0.0,0.0,0.0,0.0,0.0,0.0,0.0,0.0,0.032130807059984404,0.11627250011936405,0.0970509127369376,0.10562522878105454,0.17572772269348907,0.2500696290165996,0.48374659812518894,0.4243848773733548,0.12852123883946334,0.024497477440198617,0.10948864450209284,0.07943079273630099,0.04786497541101014,0.0,0.0,0.0,0.0,0.0,0.0,0.0,0.0,0.0,0.0,0.0,0.05069191348495218,0.1841130456925501,0.3293134181083189,0.4495428357710121,0.5236977384495409,0.4698009008005347,0.5904083045533398,0.5724101984625913,0.5257706937437334,0.4499188324606496,0.34909999522543883,0.21058997660465045,0.06906601626533827,0.0006604809574586603,0.0,0.0,0.0,0.0,0.0,0.0,0.0,0.0,0.0,0.0,0.044568538825139656,0.1841130456925501,0.334967294256203,0.4576456639027263,0.5464047554628938,0.4354081454013019,0.5450857829484507,0.4177900148011395,0.4913779383445005,0.4396495472124521,0.35399988859357345,0.20851702131045788,0.07641486161730301,0.0006604809574586603,0.0,0.0,0.0,0.0,0.0,0.0,0.0,0.0,0.0,0.0,0.041459105883850836,0.18288956440087215,0.3262019957665558,0.4112886540512152,0.5240737351391784,0.5058886254038483,0.4846875845495202,0.5420698518294527,0.37284348988588795,0.3893336304171375,0.34900649340314804,0.21228693520920536,0.06897251444304743,0.0007539827797494947,0.0,0.0,0.0,0.0,0.0,0.0,0.0,0.0,0.0,0.0,0.04946843219327424,0.1895779287953782,0.3397716964015724,0.4571741759903236,0.4884574984482677,0.5144629414479652,0.6309244346123851,0.6098188849808222,0.5627059029490872,0.48374659812518894,0.3575808094472649,0.2175628252669776,0.06774704375089524,0.0014124743367338818,0.0,0.0,0.0,0.0,0.0,0.0,0.0,0.0,0.0,0.0,0.04334306813298744,0.15311420750242707,0.27607706141677146,0.4007348845351965,0.4715913612273805,0.5133329619785781,0.5422588448745087,0.5779705727881845,0.5297276112870625,0.4549142170515494,0.3465555520188436,0.2108724714719972,0.06991350086737863,0.0005649897346935527,0.0,0.0,0.0,0.0,0.0,0.0,0.0,0.0,0.0,0.0,0.04598101316187354,0.16988684290102335,0.27409760794486976,0.2644868142536565,0.22453567392930468,0.3665311221810195,0.5007062371683669,0.3665311221810195,0.4645250107427626,0.3756704279598301,0.2929431986376586,0.0733054286760142,0.06002021230881863,0.0,0.0,0.0,0.0,0.0,0.0,0.0,0.0,0.0,0.0,0.0,0.044568538825139656,0.1406764757372718,0.3322338580045518,0.16281850301593112,0.060302707176165385,0.044190552735027776,0.1807211178839145,0.3397716964015724,0.5762736141836297,0.4165645441089873,0.2688217178870976,0.19155738226727995,0.07745133926439929,0.0015079655594989895,0.0,0.0,0.0,0.0,0.0,0.0,0.0,0.0,0.0,0.0,0.0,0.042400092308182015,0.16979135167825826,0.2604344054875623,0.4698944026228256,0.545933267550491,0.6254595515095571,0.5206818073305429,0.4593426225072813,0.2521425843107921,0.3132947654894721,0.1624425063262935,0.06963100600003183,0.0007539827797494947,0.0,0.0,0.0,0.0,0.0,0.0,0.0,0.0,0.0,0.0,0.04193059379625357,0.18147510066366396,0.2756055735043688,0.4443604475355307,0.5244517212292903,0.5726926933299381,0.5228482644470263,0.496371333534926,0.534721006477488,0.4530282654019385,0.3457080674168033,0.21219343338691452,0.07189295433928031,0.0014124743367338818,0.0,0.0,0.0,0.0,0.0,0.0,0.0,0.0,0.0,0.0,0.048714449413524735,0.17968464023681824,0.3251675075199338,0.4431349768433785,0.5281261439052728,0.5807020196393615,0.5963446755685707,0.3511729505196314,0.5460287587732561,0.4620740693584581,0.3351542979007846,0.21615035093024365,0.07198645616157115,0.002261948339248484,0.0,0.0,0.0,0.0,0.0,0.0,0.0,0.0,0.0,0.0,0.04541602342717999,0.1788371556347779,0.327427466458708,0.3854702146960992,0.2947336590645043,0.0,0.6197101841389079,0.5851304250950934,0.0,0.0,0.1173089777664603,0.16866137220887115,0.07264693711902982,0.0,0.0,0.0,0.0,0.0,0.0,0.0,0.0,0.0,0.0,0.0,0.04720648385402575,0.0,0.32309455222574124,0.44454944058058665,0.2445490427004918,0.25009350182229084,0.6026570432734392,0.09478896439768912,0.06925500931039423,0.21341691467859247,0.2750405837696752,0.15141724889787214,0.05106989957506406,0.0,0.0,0.0,0.0,0.0,0.0,0.0,0.0,0.0,0.0,0.0,0.040516130059045405,0.17667069851829453,0.3244135247401843,0.4467158976970701,0.5338735218754476,0.12541180589817452,0.11231558257603487,0.1073201979851352,0.19956670857670333,0.2593044260181752,0.2767355529737558,0.21068546782741554,0.07255343529673898,0.0,0.0,0.0,0.0,0.0,0.0,0.0,0.0,0.0,0.0,0.0,0.02883238107363965,0.16187751659159996,0.3100918307258925,0.4442669457132399,0.3752009294479016,0.16281850301593112,0.4371051040058568,0.4519917877548422,0.3575808094472649,0.3670026100934223,0.17751818312033485,0.21379490076870436,0.04079862492639218,0.0,0.0,0.0,0.0,0.0,0.0,0.0,0.0,0.0,0.0,0.0,0.05059841166266135,0.1015728200149603,0.260716900354909,0.3464620501965528,0.019693075294829148,0.04541602342717999,0.06482660385466235,0.1394510050451196,0.2960526315789473,0.44454944058058665,0.2854053602406379,0.009799786736269158,0.07340091989877931,0.0,0.0,0.0,0.0,0.0,0.0,0.0,0.0,0.0,0.0,0.0,0.04409705091273694,0.174597743224102,0.3183836519026626,0.4379545780083714,0.5186088520363503,0.5897478235958812,0.6068029538618241,0.5673233014498751,0.523415243582194,0.38754316999029176,0.3408101634491429,0.20861251253322302,0.08084326707303488,0.0,0.0,0.0,0.0,0.0,0.0,0.0,0.0,0.0,0.0,0.0,0.046452501074276266,0.16800089125141246,0.30519193735775785,0.4322072000381965,0.5236042366272501,0.4536887463593972,0.4952413540655388,0.5841874492702879,0.5341560167427943,0.4525587668900101,0.3327053459169545,0.2043711107220728,0.07000899209014373,0.0,0.0,0.0,0.0,0.0,0.0,0.0,0.0,0.0,0.0,0.0,0.0457920201168176,0.16941535498862065,0.3081123772539908,0.4247608740629924,0.4550077188738402,0.5222832747123327,0.5034396734200182,0.4970318144923846,0.4464334028297233,0.3887686406824439,0.2998205560772206,0.2033346330749765,0.07641486161730301,0.0,0.0,0.0,0.0,0.0,0.0,0.0,0.0,0.0,0.0,0.0,0.043908057867681004,0.1661169290022759,0.3015175146817755,0.4153390734168351,0.5038156701096558,0.42202942721181547,0.3521159263444369,0.5658153358903761,0.08621464835357218,0.13624807028153996,0.15311420750242707,0.21181544729680266,0.07113897155953082,0.0,0.0,0.0,0.0,0.0,0.0,0.0,0.0,0.0,0.0,0.0,0.044190552735027776,0.1669644136043162,0.30424896153295244,0.4187310012254707,0.5025901994175035,0.5527171231677622,0.3746339503127338,0.3516444384320341,0.5257706937437334,0.4457729218722646,0.3406191810036128,0.21200444034185856,0.08074976525074404,0.0005649897346935527,0.0,0.0,0.0,0.0,0.0,0.0,0.0,0.0,0.0,0.0,0.041646109528432514,0.1696023586332023,0.3130122706221253,0.4327702003724158,0.5181393535244219,0.5673233014498751,0.5281241545047984,0.4993872646539239,0.30632191682714505,0.3974364585488517,0.3164977002530518,0.19966021039899412,0.07905479604666338,0.0005649897346935527,0.0,0.0,0.0,0.0,0.0,0.0,0.0,0.0,0.0,0.0,0.04004464214664269,0.16074554772173855,0.2536505498702911,0.384244744003947,0.4747942959909602,0.4571741759903236,0.4714023681823246,0.343352617255264,0.4179770184457212,0.3521159263444369,0.3075473875192972,0.19937771553164735,0.0275134085591966,0.0,0.0,0.0,0.0,0.0,0.0,0.0,0.0,0.0,0.0,0.0,0.010175783425906769,0.05399033947129693,0.15141724889787214,0.1753517260038515,0.3584282940493053,0.4999522543886175,0.46650247481419,0.4639580316075948,0.4218404341667595,0.3238485350054908,0.22510066366399825,0.17167531392739485,0.0660500851463403,0.0,0.0,0.0,0.0,0.0,0.0,0.0,0.0,0.0,0.0,0.0,0.041270112838794906,0.1054362357359986,0.16328999092833385,0.28267192398898666,0.42928477074148935,0.43267669855012497,0.4040333105215412,0.5040046631547117,0.4977857972721341,0.3726564862413063,0.2961461334012382,0.15311420750242707,0.05436633616093454,0.0,0.0,0.0,0.0,0.0,0.0,0.0,0.0,0.0,0.0,0.0,0.03524024000127322,0.16112353381185046,0.29623963522352903,0.4122296404755463,0.3764244107395796,0.4374811006954945,0.1902384097528369,0.5409398723600656,0.4801656772714975,0.34872200913532697,0.08932408129486097,0.039386150589658296,0.0,0.0,0.0,0.0,0.0,0.0,0.0,0.0,0.0,0.0,0.0,0.0,0.040987617971448134,0.16131053745643212,0.2965221300908758,0.4158105613292378,0.5073965909633473,0.31225828784237586,0.5102235290372893,0.5152169242277147,0.32846394410580426,0.4103456782264097,0.2675027453726545,0.17874365381248708,0.05135239444241083,0.0,0.0,0.0,0.0,0.0,0.0,0.0,0.0,0.0,0.0,0.0,0.038536676587143694,0.1635724857956806,0.3084903633441026,0.3789688539461748,0.4396495472124521,0.4642425158754158,0.378875352123884,0.3599362596088043,0.4479413683892222,0.4546317221842026,0.307640889341588,0.2006031862237996,0.07848781691149556,0.0005649897346935527,0.0,0.0,0.0,0.0,0.0,0.0,0.0,0.0,0.0,0.0,0.03966864545700508,0.16178202536883485,0.30330797510862123,0.424291375551064,0.5114470103289673,0.5636488787738928,0.5127659828434104,0.5770275969633791,0.5314245698916175,0.4577411551254914,0.34834601244568936,0.2124759282542613,0.07208194738433625,0.0,0.0,0.0,0.0,0.0,0.0,0.0,0.0,0.0,0.0,0.0,0.039008164499546416,0.16112353381185046,0.2650518039883501,0.3657771394012701,0.3408081740486687,0.1402049878248691,0.09271600910349656,0.2283055878280521,0.4488823548135534,0.32893543201820696,0.2707056801362342,0.21106146451705315,0.058042748237391174,0.0,0.0,0.0,0.0,0.0,0.0,0.0,0.0,0.0,0.0,0.0,0.033543281396718284,0.11353906386771286,0.3087728582114494,0.17563422087119826,0.41637555106393137,0.4139265990801012,0.0974269094265752,0.14171295338436807,0.27042318526888737,0.26250736078175485,0.2094599971352633,0.11674398803176675,0.02280250823611796,0.0,0.0,0.0,0.0,0.0,0.0,0.0,0.0,0.0,0.0,0.0,0.017242133910524725,0.12004042461763725,0.04353206117804339,0.11683748985405758,0.1402049878248691,0.2659947798131555,0.27786752184361724,0.3084903633441026,0.32601499212197416,0.32959591297566565,0.041459105883850836,0.1043062562666115,0.0649201056769532,0.0,0.0,0.0,0.0,0.0,0.0,0.0,0.0,0.0,0.0,0.0,0.012626724810211196,0.09544944535514778,0.1440684035459074,0.2404588353253864,0.5498921744942944,0.4620740693584581,0.6024700396288574,0.3979079464612545,0.2497871341492528,0.4366336160934541,0.3550363662406697,0.21520737510543825,0.07500238728056913,0.0,0.0,0.0,0.0,0.0,0.0,0.0,0.0,0.0,0.0,0.0,0.03156581732529085,0.16489145831012367,0.3213975936211864,0.4624520554485701,0.5562980440214537,0.24460474591377146,0.5081505737430968,0.5981351359954165,0.5498901850938201,0.4753592857256537,0.3621027167252877,0.16423296675313928,0.06878352139799151,0.0,0.0,0.0,0.0,0.0,0.0,0.0,0.0,0.0,0.0,0.0,0.03429726417646778,0.16225351328123758,0.3112218101952796,0.4346561520220266,0.5211532952429455,0.5733531742873967,0.4118536437859087,0.5823034870211513,0.3608772460331355,0.4632060382283195,0.3493824900927857,0.2117219454745118,0.07632135979501217,0.0,0.0,0.0,0.0,0.0,0.0,0.0,0.0,0.0,0.0,0.0,0.03618122642560438,0.15791860964779653,0.2573249725462735,0.3866001941654863,0.4554772173857686,0.509091560167428,0.5775925866980727,0.5636488787738928,0.259397927840466,0.3390177136218229,0.3432571260324989,0.2082345264431111,0.06642807123645217,0.0,0.0,0.0,0.0,0.0,0.0,0.0,0.0,0.0,0.0,0.0,0.03486225391116134,0.15528066461891046,0.29708910922604365,0.4192959909601642,0.5069251030509445,0.5590314802731049,0.5770275969633791,0.5723166966403005,0.5281261439052728,0.4544427291391466,0.34617955532920597,0.20889500740056974,0.0741549026785288,0.0,0.0,0.0,0.0,0.0,0.0,0.0,0.0,0.0,0.0,0.0,0.03109432941288813,0.15641263348877182,0.30660441169449176,0.4317337227253195,0.3853767128738084,0.20785852975347352,0.6013380707589961,0.5807020196393615,0.5578060095809527,0.480730667006191,0.3662486273136728,0.21615035093024365,0.06906601626533827,0.0,0.0,0.0,0.0,0.0,0.0,0.0,0.0,0.0,0.0,0.0,0.027984896471599317,0.15575215253131314,0.2859703499753315,0.2989730714751802,0.13935750322282878,0.35560135597536324,0.5115425015517324,0.4632995400506104,0.3832082663568507,0.3812308022854233,0.2593044260181752,0.1753517260038515,0.0684075247083539,0.0,0.0,0.0,0.0,0.0,0.0,0.0,0.0,0.0,0.0,0.0,0.026100934222462718,0.12739125937007625,0.26373283147390697,0.3957414893447711,0.4370116021835659,0.5099410341699425,0.591349290977671,0.4954303471105948,0.4562331895659924,0.4218404341667595,0.3457080674168033,0.18053411423933285,0.06501360749924402,0.0,0.0,0.0,0
...